/*--------------------------------*- C++ -*----------------------------------*\
| =========                 |                                                 |
| \\      /  F ield         | OpenFOAM: The Open Source CFD Toolbox           |
|  \\    /   O peration     | Version:  2.2.1                                 |
|   \\  /    A nd           | Web:      www.OpenFOAM.com                      |
|    \\/     M anipulation  |                                                 |
\*---------------------------------------------------------------------------*/
FoamFile
{
    version     2.0;
    format      ascii;
    class       dictionary;
    object      blockMeshDict;
}
// * * * * * * * * * * * * * * * * * * * * * * * * * * * * * * * * * * * * * //

convertToMeters 0.1;


// variables:

a 1000.0;
b 2000.0;
c 1.0;
D 20.0;

cells 200;

x1 $a;
y1 0;
x2 #calc "2.0*$a";
y2 0;
x3 $x2;
y3 $b;
x4 $a;
y4 $b;
x5 0;
y5 $b;
x6 $a;
y6 #calc "($b+$D)/2.0";
x7 $a;
y7 #calc "($b-$D)/2.0";
x8 $x2;
y8 $y7;
x9 $x2;
y9 $y6;
x10 0;
y10 $y6;
x11 0;
y11 $y7;


vertices        
(
    (0 0 0) //0
    ($x1 $y1 0) //1
    ($x2 $y2 0) //2
    ($x3 $y3 0) //3
    ($x4 $y4 0) //4
    ($x5 $y5 0) //5
    ($x6 $y6 0) //6
    ($x7 $y7 0) //7
    ($x8 $y8 0) //8
    ($x9 $y9 0) //9
    ($x10 $y10 0) //10
    ($x11 $y11 0) //11
    (0 0 $c) //12
    ($x1 $y1 $c) //13
    ($x2 $y2 $c) //14
    ($x3 $y3 $c) //15
    ($x4 $y4 $c) //16
    ($x5 $y5 $c) //17
    ($x6 $y6 $c) //18
    ($x7 $y7 $c) //19
    ($x8 $y8 $c) //20
    ($x9 $y9 $c) //21
    ($x10 $y10 $c) //22
    ($x11 $y11 $c) //23
);

blocks          
(
    hex (0 1 7 11 12 13 19 23) ($cells $cells 1) simpleGrading (1 1 1)
    hex (11 7 6 10 23 19 18 22) ($cells $cells 1) simpleGrading (1 1 1)
    hex (10 6 4 5 22 18 16 17) ($cells $cells 1) simpleGrading (1 1 1)
    hex (1 2 8 7 13 14 20 19) ($cells $cells 1) simpleGrading (1 1 1)
    hex (7 8 9 6 19 20 21 18) ($cells $cells 1) simpleGrading (1 1 1)
    hex (6 9 3 4 18 21 15 16) ($cells $cells 1) simpleGrading (1 1 1)
);

edges           
(
);

boundary
(
    coldWall
    {
        type wall;
        faces
        (
            (17 16 4 5)
            (17 5 10 22)
            (23 22 10 11)
	          (12 23 11 0)
	          (0 1 13 12)
        );
    }
    hotWalls
    {
        type wall;
        faces
        (
            (15 3 4 16)
            (15 21 9 3)
            (20 8 9 21)
            (14 2 8 20)
            (1 2 14 13)
        );
    }
    /*
    isoWalls
    {
        type wall;
        faces
        (
            (16 4 6 18)
            (18 6 4 16)
            (19 7 1 13)
            (13 1 7 19)
        );
    }
    */
    frontAndBack
    {
        type empty;
        faces
        (
            (0 11 7 1)
            (11 10 6 7)
            (10 5 4 6)
            (1 7 8 2)
            (7 6 9 8)
            (6 4 3 9)
            (12 13 19 23)
            (23 19 18 22)
            (22 18 16 17)
            (13 14 20 19)
            (19 20 21 18)
            (18 21 15 16)
        );
    }
);

mergePatchPairs 
(
);

// ************************************************************************* //